Estimador_Hibrido/med/BASES/PMU Calibration/Full_PMU_Marcio_Iinj-M56/Full_PMU_MI-M56.txt
================================================================================= 
=== UFF - Doutorado em Computação - Aplicaçoes em Sistemas de Potencia        === 
=== ESTIMADOR DE ESTADO MÍNIMOS QUADRADOS PONDERADOS INCLUINDO MEDIDAS DE PMU === 
=== Desenvolvido por: Rui Menezes de Moraes - 2009                            === 
================================================================================= 
Arquivo de medidores:          .\med\CS1_39M_PMU_VI.med
Arquivo do sistema:            .\sist\ieee14.cdf
Tolerância entre iteraçoes:    1.00e-005
Limite de iteraçoes:           100

--- DADOS DA REDE --------------------------------------------------------------- 
Data do caso:                  08/19/93
Origem:                        UW ARCHIVE          
MVA base:                      100
Ano:                           1962
Estação:                       W
Identificação:                 IEEE 14 Bus Test Case
Número de barras:              14 
Número de ramos:               20 
Referência na barra:           1

--- TELEMEDIDAS ------------------------------------------------------------------
    Tipo 1 = Fluxo de potencia ativa        Tipo  6 = Módulo da tensão            
    Tipo 2 = Injeção de potencia ativa      Tipo  7 = Corrente de ramo (real)     
    Tipo 3 = Ângulo de fase da tensão       Tipo  8 = Corrente de ramo (imag)     
    Tipo 4 = Fluxo de potencia reativa      Tipo  9 = Injeção de corrente (real)  
    Tipo 5 = Injeção de potencia reativa    Tipo 10 = Injeção de corrente (imag)  
----------------------------------------------------------------------------------
   N    D    P TP  PN ST   Exa   FS       DP      V_Ref      V_Med          E(%) 
----------------------------------------------------------------------------------
   1    1    2  1   0  0 0.020 01.0  0.00015   +1.56805   +1.56277     -0.336724 
   2    1    5  1   0  0 0.020 01.0  0.00005   +0.75460   +0.74333     -1.493506 
   3    2    3  1   0  0 0.020 01.0  0.00004   +0.73305   +0.73388     +0.113226 
   4    4    7  1   0  0 0.020 01.0  0.00001   +0.28126   +0.28230     +0.369765 
   5    4    9  1   0  0 0.020 01.0  0.00001   +0.16101   +0.15779     -1.999876 
   6    5    2  1   0  0 0.020 01.0  0.00002   -0.40536   -0.40007     -1.305013 
   7    6   11  1   0  0 0.020 01.0  0.00001   +0.07337   +0.07601     +3.598201 
   8    6   12  1   0  0 0.020 01.0  0.00001   +0.07850   +0.07841     -0.114650 
   9    6   13  1   0  0 0.020 01.0  0.00001   +0.17927   +0.18023     +0.535505 
  10    7    8  1   0  0 0.020 01.0  0.00000   +0.00000   +0.00030     +0.000000 
  11    8    7  1   0  0 0.020 01.0  0.00000   +0.00000   -0.00032     +0.000000 
  12    9   10  1   0  0 0.020 01.0  0.00000   +0.05275   +0.05426     +2.862559 
  13    9   14  1   0  0 0.020 01.0  0.00001   +0.09340   +0.09201     -1.488223 
  14   12   13  1   0  0 0.020 01.0  0.00000   +0.01662   +0.02064    +24.187726 
  15    0    3  2   0  0 0.020 01.0  0.00006   -0.94406   -0.94516     +0.116518 
  16    0    6  2   0  0 0.020 01.0  0.00001   -0.11019   -0.10990     -0.263182 
  17    0    9  2   0  0 0.020 01.0  0.00001   -0.29595   -0.29200     -1.334685 
  18    0   10  2   0  0 0.020 01.0  0.00001   -0.09091   -0.09077     -0.153998 
  19    0   13  2   0  0 0.020 01.0  0.00001   -0.13855   -0.13880     +0.180440 
  20    0    1  6   0  0 0.015 01.1  0.00003   +1.06000   +1.05559     -0.416038 
  21    1    2  4   0  0 0.020 01.0  0.00001   -0.20386   -0.20295     -0.446385 
  22    1    5  4   0  0 0.020 01.0  0.00000   +0.03634   +0.03370     -7.264722 
  23    2    3  4   0  0 0.020 01.0  0.00000   +0.03554   +0.03694     +3.939223 
  24    4    7  4   0  0 0.020 01.0  0.00001   -0.09754   -0.09367     -3.967603 
  25    4    9  4   0  0 0.020 01.0  0.00000   -0.00375   -0.00497    +32.533333 
  26    5    2  4   0  0 0.020 01.0  0.00000   -0.01848   -0.01689     -8.603896 
  27    6   11  4   0  0 0.020 01.0  0.00000   +0.03518   +0.03765     +7.021035 
  28    6   12  4   0  0 0.020 01.0  0.00000   +0.02552   +0.02249    -11.873041 
  29    6   13  4   0  0 0.020 01.0  0.00001   +0.07440   +0.07119     -4.314516 
  30    7    8  4   0  0 0.020 01.0  0.00001   -0.16881   -0.16718     -0.965583 
  31    8    7  4   0  0 0.020 01.0  0.00001   +0.17326   +0.17211     -0.663742 
  32    9   10  4   0  0 0.020 01.0  0.00000   +0.04268   +0.04407     +3.256795 
  33    9   14  4   0  0 0.020 01.0  0.00000   +0.03494   +0.03654     +4.579279 
  34   12   13  4   0  0 0.020 01.0  0.00000   +0.00803   +0.00930    +15.815691 
  35    0    3  5   0  0 0.020 01.0  0.00001   +0.05965   +0.06240     +4.610226 
  36    0    6  5   0  0 0.020 01.0  0.00000   +0.05243   +0.05382     +2.651154 
  37    0    9  5   0  0 0.020 01.0  0.00000   -0.17115   -0.17388     +1.595092 
  38    0   10  5   0  0 0.020 01.0  0.00001   -0.05872   -0.06127     +4.342643 
  39    0   13  5   0  0 0.020 01.0  0.00001   -0.06255   -0.06259     +0.063949 
  40    0    1  9   1  0 0.010 01.0  0.00000   +2.19118   +2.19829     +0.324483 
  41    0    1 10   1  0 0.010 01.0  0.00000   +0.15803   +0.15908     +0.664431 
  42    0    2  9   2  0 0.010 01.0  0.00000   +0.14938   +0.14821     -0.783237 
  43    0    2 10   2  0 0.010 01.0  0.00000   -0.30477   -0.30584     +0.351084 
  44    0    3  9   3  0 0.010 01.0  0.00000   -0.92477   -0.91867     -0.659623 
  45    0    3 10   3  0 0.010 01.0  0.00000   +0.14820   +0.14746     -0.499325 
  46    0    4  9   4  0 0.010 01.0  0.00000   -0.46812   -0.46512     -0.640861 
  47    0    4 10   4  0 0.010 01.0  0.00000   +0.04662   +0.04679     +0.364650 
  48    0    5  9   5  0 0.010 01.0  0.00000   -0.06922   -0.06950     +0.404507 
  49    0    5 10   5  0 0.010 01.0  0.00000   +0.01659   +0.01650     -0.542495 
  50    0    6  9   6  0 0.010 01.0  0.00000   -0.11185   -0.11116     -0.616898 
  51    0    6 10   6  0 0.010 01.0  0.00000   -0.02219   -0.02223     +0.180261 
  52    0    7  9   7  0 0.010 01.0  0.00000   -0.00182   -0.00181     -0.549451 
  53    0    7 10   7  0 0.010 01.0  0.00000   -0.00695   -0.00699     +0.575540 
  54    0    8  9   8  0 0.010 01.0  0.00000   -0.03672   -0.03646     -0.708061 
  55    0    8 10   8  0 0.010 01.0  0.00000   -0.15465   -0.15482     +0.109926 
  56    0    9  9   9  0 0.010 01.0  0.00000   -0.28071   -0.28070     -0.003562 
  57    0    9 10   9  0 0.010 01.0  0.00000   +0.03499   +0.03497     -0.057159 
  58    0   10  9  10  0 0.010 01.0  0.00000   -0.06894   -0.06855     -0.565709 
  59    0   10 10  10  0 0.010 01.0  0.00000   +0.07647   +0.07674     +0.353080 
  60    0   11  9  11  0 0.010 01.0  0.00000   -0.02727   -0.02748     +0.770077 
  61    0   11 10  11  0 0.010 01.0  0.00000   +0.02416   +0.02406     -0.413907 
  62    0   12  9  12  0 0.010 01.0  0.00000   -0.05203   -0.05159     -0.845666 
  63    0   12 10  12  0 0.010 01.0  0.00000   +0.02968   +0.02939     -0.977089 
  64    0   13  9  13  0 0.010 01.0  0.00000   -0.11178   -0.11127     -0.456253 
  65    0   13 10  13  0 0.010 01.0  0.00000   +0.09200   +0.09214     +0.152174 
  66    0   14  9  14  0 0.010 01.0  0.00000   -0.12367   -0.12307     -0.485162 
  67    0   14 10  14  0 0.010 01.0  0.00000   +0.08280   +0.08235     -0.543478 
----------------------------------------------------------------------------------
Número de medidores SCADA:     39
Número de PMUs:                14
Número de medidas das PMUs:    28
----------------------------------------------------------------------------------

Matriz de pesos formada com as covariâncias das telemedidas.
Não há medidas de ângulo.
Não há medidores desabilitados.
============= Estado Ref =============== Estado Est ================ TVE =========
Barra     Mod(pu)    Ang(graus)      Mod(pu)   Ang(graus)            (%)         
----------------------------------------------------------------------------------
   1       1.0600         0.00        0.8673         0.00         18.1783 
   2       1.0450        -4.98        0.8529        -6.25         18.4904 
   3       1.0100       -12.73        0.8247       -15.96         19.0443 
   4       1.0180       -10.31        0.8352       -13.06         18.4783 
   5       1.0200        -8.77        0.8354       -11.11         18.4691 
   6       1.0700       -14.22        0.8886       -17.67         17.8245 
   7       1.0620       -13.36        0.8890       -16.87         17.2252 
   8       1.0900       -13.36        0.9141       -16.81         17.0491 
   9       1.0560       -14.94        0.8924       -18.82         16.6913 
  10       1.0510       -15.10        0.8843       -19.00         17.0468 
  11       1.0570       -14.79        0.8832       -18.52         17.4900 
  12       1.0550       -15.08        0.8753       -18.77         18.0087 
  13       1.0500       -15.16        0.8712       -18.91         18.0397 
  14       1.0360       -16.03        0.8663       -20.11         17.6291 
----------------------------------------------------------------------------------
Convergiu em:    6 iteraçoes com TVE medio de    17.8332 
----------------------------------------------------------------------------------
--- RESIDUOS NORMALIZADOS --------------------------------------------------------
--- Fluxo de potencia ativa     --------------------------------------------------
   N    D    P  TP      Real     Medido   Estimado      Med-Est        rn 
----------------------------------------------------------------------------------
   1    1    2  1    +1.5680    +1.5628    +1.3126  +2.5014e-001     21.456 
   3    2    3  1    +0.7330    +0.7339    +0.6065  +1.2741e-001     19.929 
   2    1    5  1    +0.7546    +0.7433    +0.6335  +1.0979e-001     16.901 
   6    5    2  1    -0.4054    -0.4001    -0.3343  -6.5804e-002     15.235 
   4    4    7  1    +0.2813    +0.2823    +0.2407  +4.1647e-002     11.742 
   9    6   13  1    +0.1793    +0.1802    +0.1504  +2.9820e-002     10.256 
   7    6   11  1    +0.0734    +0.0760    +0.0571  +1.8923e-002      8.487 
   5    4    9  1    +0.1610    +0.1578    +0.1386  +1.9200e-002      6.961 
   8    6   12  1    +0.0785    +0.0784    +0.0653  +1.3154e-002      5.849 
  14   12   13  1    +0.0166    +0.0206    +0.0133  +7.3065e-003      3.910 
  11    8    7  1    +0.0000    -0.0003    +0.0045  -4.8657e-003      2.822 
  10    7    8  1    +0.0000    +0.0003    -0.0045  +4.8457e-003      2.810 
  13    9   14  1    +0.0934    +0.0920    +0.0865  +5.4876e-003      2.357 
  12    9   10  1    +0.0527    +0.0543    +0.0544  -1.1551e-004      0.055 
--- Injeção de potencia ativa   --------------------------------------------------
   N    D    P  TP      Real     Medido   Estimado      Med-Est        rn 
----------------------------------------------------------------------------------
  15    0    3  2    -0.9441    -0.9452    -0.7746  -1.7055e-001     22.448 
  17    0    9  2    -0.2959    -0.2920    -0.2431  -4.8855e-002     13.713 
  16    0    6  2    -0.1102    -0.1099    -0.0885  -2.1355e-002      8.768 
  19    0   13  2    -0.1386    -0.1388    -0.1199  -1.8876e-002      7.181 
  18    0   10  2    -0.0909    -0.0908    -0.0808  -9.9839e-003      4.295 
--- Fluxo de potencia reativa   --------------------------------------------------
   N    D    P  TP      Real     Medido   Estimado      Med-Est        rn 
----------------------------------------------------------------------------------
  26    5    2  4    -0.0185    -0.0169    +0.0282  -4.5065e-002     24.617 
  27    6   11  4    +0.0352    +0.0377    -0.0027  +4.0395e-002     20.406 
  25    4    9  4    -0.0037    -0.0050    -0.0403  +3.5362e-002     20.090 
  24    4    7  4    -0.0975    -0.0937    -0.1350  +4.1351e-002     17.843 
  31    8    7  4    +0.1733    +0.1721    +0.1305  +4.1587e-002     14.626 
  30    7    8  4    -0.1688    -0.1672    -0.1269  -4.0253e-002     14.309 
  29    6   13  4    +0.0744    +0.0712    +0.0431  +2.8049e-002     12.836 
  21    1    2  4    -0.2039    -0.2029    -0.1644  -3.8530e-002     12.662 
  23    2    3  4    +0.0355    +0.0369    +0.0127  +2.4210e-002     12.360 
  32    9   10  4    +0.0427    +0.0441    +0.0657  -2.1661e-002     10.782 
  22    1    5  4    +0.0363    +0.0337    +0.0129  +2.0806e-002     10.662 
  33    9   14  4    +0.0349    +0.0365    +0.0463  -9.7598e-003      4.980 
  28    6   12  4    +0.0255    +0.0225    +0.0151  +7.4120e-003      3.944 
  34   12   13  4    +0.0080    +0.0093    +0.0033  +6.0227e-003      3.357 
--- Injeção de potencia reativa --------------------------------------------------
   N    D    P  TP      Real     Medido   Estimado      Med-Est        rn 
----------------------------------------------------------------------------------
  37    0    9  5    -0.1712    -0.1739    +0.0487  -2.2253e-001     77.513 
  35    0    3  5    +0.0597    +0.0624    +0.0820  -1.9639e-002     10.434 
  38    0   10  5    -0.0587    -0.0613    -0.0483  -1.2940e-002      6.100 
  39    0   13  5    -0.0625    -0.0626    -0.0500  -1.2615e-002      5.952 
  36    0    6  5    +0.0524    +0.0538    +0.0486  +5.1958e-003      2.489 
--- Módulo da tensão            --------------------------------------------------
   N    D    P  TP      Real     Medido   Estimado      Med-Est        rn 
----------------------------------------------------------------------------------
  20    0    1  6    +1.0600    +1.0556    +0.8673  +1.8828e-001     38.586 
--- Injeção de corrente (real)  --------------------------------------------------
   N    D    P  TP      Real     Medido   Estimado      Med-Est        rn 
----------------------------------------------------------------------------------
  56    0    9  9    -0.2807    -0.2807    -0.2755  -5.2237e-003     18.174 
  50    0    6  9    -0.1119    -0.1112    -0.1116  +4.0026e-004      6.910 
  40    0    1  9    +2.1912    +2.1983    +2.2439  -4.5623e-002      6.803 
  54    0    8  9    -0.0367    -0.0365    -0.0365  +7.0144e-005      6.719 
  44    0    3  9    -0.9248    -0.9187    -0.9304  +1.1765e-002      6.235 
  64    0   13  9    -0.1118    -0.1113    -0.1116  +3.5509e-004      5.581 
  46    0    4  9    -0.4681    -0.4651    -0.4641  -1.0517e-003      3.007 
  42    0    2  9    +0.1494    +0.1482    +0.1483  -7.3336e-005      2.188 
  48    0    5  9    -0.0692    -0.0695    -0.0695  -1.6925e-005      2.076 
  66    0   14  9    -0.1237    -0.1231    -0.1232  +1.0492e-004      1.903 
  58    0   10  9    -0.0689    -0.0686    -0.0686  +4.0834e-005      1.421 
  62    0   12  9    -0.0520    -0.0516    -0.0516  +1.4199e-005      1.230 
  60    0   11  9    -0.0273    -0.0275    -0.0275  +1.6723e-007      0.057 
  52    0    7  9    -0.0018    -0.0018    -0.0018  -2.2999e-008      0.000 
--- Injeção de corrente (imag)  --------------------------------------------------
   N    D    P  TP      Real     Medido   Estimado      Med-Est        rn 
----------------------------------------------------------------------------------
  57    0    9 10    +0.0350    +0.0350    +0.0363  -1.3024e-003    138.955 
  53    0    7 10    -0.0069    -0.0070    -0.0070  -3.8333e-005    118.166 
  47    0    4 10    +0.0466    +0.0468    +0.0482  -1.4468e-003    106.398 
  49    0    5 10    +0.0166    +0.0165    +0.0167  -1.8215e-004    106.274 
  61    0   11 10    +0.0242    +0.0241    +0.0245  -4.5265e-004    103.236 
  67    0   14 10    +0.0828    +0.0824    +0.0876  -5.2459e-003    101.903 
  43    0    2 10    -0.3048    -0.3058    -0.2507  -5.5182e-002     98.144 
  41    0    1 10    +0.1580    +0.1591    +0.1747  -1.5628e-002     93.537 
  63    0   12 10    +0.0297    +0.0294    +0.0300  -6.2862e-004     90.860 
  45    0    3 10    +0.1482    +0.1475    +0.1627  -1.5204e-002     89.755 
  65    0   13 10    +0.0920    +0.0921    +0.0989  -6.7388e-003     89.725 
  55    0    8 10    -0.1547    -0.1548    -0.1381  -1.6702e-002     88.807 
  59    0   10 10    +0.0765    +0.0767    +0.0814  -4.6785e-003     87.294 
  51    0    6 10    -0.0222    -0.0222    -0.0219  -3.4301e-004     83.706 
----------------------------------------------------------------------------------
Possível erro grosseiro no medidor 57!
Medida crítica   52!
Medida crítica   53!
Possíveis conjuntos críticos:
Conjunto 1: 10 11
Conjunto 2: 14 28
Conjunto 3: 50 5
Conjunto 4: 3 25
Conjunto 5: 65 45
Conjunto 6: 49 47
Não há medidas de ângulo.
Medidores desabilitados:
Medidor 56.
============= Estado Ref =============== Estado Est ================ TVE =========
Barra     Mod(pu)    Ang(graus)      Mod(pu)   Ang(graus)            (%)         
----------------------------------------------------------------------------------
   1       1.0600         0.00        0.8723         0.00         17.7098 
   2       1.0450        -4.98        0.8581        -6.12         17.9783 
   3       1.0100       -12.73        0.8294       -15.76         18.5076 
   4       1.0180       -10.31        0.8404       -12.76         17.8731 
   5       1.0200        -8.77        0.8406       -10.84         17.8904 
   6       1.0700       -14.22        0.8922       -17.19         17.2747 
   7       1.0620       -13.36        0.8932       -16.28         16.5685 
   8       1.0900       -13.36        0.9183       -16.24         16.4130 
   9       1.0560       -14.94        0.8958       -18.08         15.9869 
  10       1.0510       -15.10        0.8877       -18.30         16.3646 
  11       1.0570       -14.79        0.8867       -17.92         16.8703 
  12       1.0550       -15.08        0.8788       -18.25         17.4482 
  13       1.0500       -15.16        0.8747       -18.38         17.4613 
  14       1.0360       -16.03        0.8695       -19.45         16.9757 
----------------------------------------------------------------------------------
Convergiu em:    8 iteraçoes com TVE medio de    17.2373 
----------------------------------------------------------------------------------
--- RESIDUOS NORMALIZADOS --------------------------------------------------------
--- Fluxo de potencia ativa     --------------------------------------------------
   N    D    P  TP      Real     Medido   Estimado      Med-Est        rn 
----------------------------------------------------------------------------------
   1    1    2  1    +1.5680    +1.5628    +1.3015  +2.6127e-001     22.437 
   3    2    3  1    +0.7330    +0.7339    +0.6091  +1.2482e-001     19.542 
   2    1    5  1    +0.7546    +0.7433    +0.6258  +1.1754e-001     18.127 
   4    4    7  1    +0.2813    +0.2823    +0.2252  +5.7091e-002     16.689 
   6    5    2  1    -0.4054    -0.4001    -0.3290  -7.1035e-002     16.479 
   7    6   11  1    +0.0734    +0.0760    +0.0512  +2.4818e-002     11.285 
   9    6   13  1    +0.1793    +0.1802    +0.1477  +3.2490e-002     11.189 
   5    4    9  1    +0.1610    +0.1578    +0.1295  +2.8299e-002     10.474 
   8    6   12  1    +0.0785    +0.0784    +0.0647  +1.3664e-002      6.075 
  14   12   13  1    +0.0166    +0.0206    +0.0127  +7.9509e-003      4.255 
  12    9   10  1    +0.0527    +0.0543    +0.0600  -5.7128e-003      2.786 
  11    8    7  1    +0.0000    -0.0003    +0.0032  -3.5005e-003      2.033 
  10    7    8  1    +0.0000    +0.0003    -0.0032  +3.4805e-003      2.021 
  13    9   14  1    +0.0934    +0.0920    +0.0904  +1.6433e-003      0.710 
--- Injeção de potencia ativa   --------------------------------------------------
   N    D    P  TP      Real     Medido   Estimado      Med-Est        rn 
----------------------------------------------------------------------------------
  17    0    9  2    -0.2959    -0.2920    -0.2077  -8.4271e-002     30.215 
  15    0    3  2    -0.9441    -0.9452    -0.7865  -1.5866e-001     21.032 
  16    0    6  2    -0.1102    -0.1099    -0.0894  -2.0454e-002      8.403 
  19    0   13  2    -0.1386    -0.1388    -0.1202  -1.8647e-002      7.095 
  18    0   10  2    -0.0909    -0.0908    -0.0806  -1.0176e-002      4.378 
--- Fluxo de potencia reativa   --------------------------------------------------
   N    D    P  TP      Real     Medido   Estimado      Med-Est        rn 
----------------------------------------------------------------------------------
  26    5    2  4    -0.0185    -0.0169    +0.0252  -4.2064e-002     23.110 
  25    4    9  4    -0.0037    -0.0050    -0.0384  +3.3477e-002     19.059 
  27    6   11  4    +0.0352    +0.0377    +0.0006  +3.7034e-002     18.818 
  24    4    7  4    -0.0975    -0.0937    -0.1322  +3.8573e-002     16.690 
  31    8    7  4    +0.1733    +0.1721    +0.1310  +4.1118e-002     14.465 
  30    7    8  4    -0.1688    -0.1672    -0.1274  -3.9775e-002     14.143 
  21    1    2  4    -0.2039    -0.2029    -0.1649  -3.8042e-002     12.505 
  23    2    3  4    +0.0355    +0.0369    +0.0142  +2.2782e-002     11.647 
  29    6   13  4    +0.0744    +0.0712    +0.0461  +2.5103e-002     11.539 
  22    1    5  4    +0.0363    +0.0337    +0.0122  +2.1510e-002     11.027 
  32    9   10  4    +0.0427    +0.0441    +0.0637  -1.9625e-002      9.784 
  33    9   14  4    +0.0349    +0.0365    +0.0455  -8.9176e-003      4.551 
  28    6   12  4    +0.0255    +0.0225    +0.0162  +6.2873e-003      3.349 
  34   12   13  4    +0.0080    +0.0093    +0.0039  +5.3726e-003      2.996 
--- Injeção de potencia reativa --------------------------------------------------
   N    D    P  TP      Real     Medido   Estimado      Med-Est        rn 
----------------------------------------------------------------------------------
  37    0    9  5    -0.1712    -0.1739    +0.0336  -2.0750e-001     76.344 
  35    0    3  5    +0.0597    +0.0624    +0.0815  -1.9147e-002     10.188 
  38    0   10  5    -0.0587    -0.0613    -0.0495  -1.1753e-002      5.545 
  39    0   13  5    -0.0625    -0.0626    -0.0513  -1.1320e-002      5.347 
  36    0    6  5    +0.0524    +0.0538    +0.0481  +5.7133e-003      2.737 
--- Módulo da tensão            --------------------------------------------------
   N    D    P  TP      Real     Medido   Estimado      Med-Est        rn 
----------------------------------------------------------------------------------
  20    0    1  6    +1.0600    +1.0556    +0.8723  +1.8331e-001     37.765 
--- Injeção de corrente (real)  --------------------------------------------------
   N    D    P  TP      Real     Medido   Estimado      Med-Est        rn 
----------------------------------------------------------------------------------
  44    0    3  9    -0.9248    -0.9187    -0.9393  +2.0614e-002     11.323 
  64    0   13  9    -0.1118    -0.1113    -0.1119  +6.0236e-004      9.638 
  50    0    6  9    -0.1119    -0.1112    -0.1117  +5.4614e-004      9.472 
  54    0    8  9    -0.0367    -0.0365    -0.0366  +9.8047e-005      9.410 
  66    0   14  9    -0.1237    -0.1231    -0.1235  +4.4718e-004      8.541 
  60    0   11  9    -0.0273    -0.0275    -0.0275  +1.8017e-005      6.439 
  48    0    5  9    -0.0692    -0.0695    -0.0695  +4.5279e-005      6.123 
  46    0    4  9    -0.4681    -0.4651    -0.4669  +1.7987e-003      5.740 
  58    0   10  9    -0.0689    -0.0686    -0.0687  +1.4288e-004      5.038 
  62    0   12  9    -0.0520    -0.0516    -0.0516  +5.5995e-005      4.919 
  42    0    2  9    +0.1494    +0.1482    +0.1481  +1.3683e-004      4.402 
  40    0    1  9    +2.1912    +2.1983    +2.2095  -1.1206e-002      1.777 
  52    0    7  9    -0.0018    -0.0018    -0.0018  +7.7088e-008      0.000 
--- Injeção de corrente (imag)  --------------------------------------------------
   N    D    P  TP      Real     Medido   Estimado      Med-Est        rn 
----------------------------------------------------------------------------------
  57    0    9 10    +0.0350    +0.0350    +0.0363  -1.3059e-003    140.170 
  53    0    7 10    -0.0069    -0.0070    -0.0070  -3.8841e-005    121.594 
  47    0    4 10    +0.0466    +0.0468    +0.0483  -1.4736e-003    110.313 
  49    0    5 10    +0.0166    +0.0165    +0.0167  -1.8550e-004    110.081 
  61    0   11 10    +0.0242    +0.0241    +0.0245  -4.5837e-004    105.454 
  67    0   14 10    +0.0828    +0.0824    +0.0877  -5.3094e-003    103.965 
  43    0    2 10    -0.3048    -0.3058    -0.2492  -5.6617e-002    103.405 
  41    0    1 10    +0.1580    +0.1591    +0.1751  -1.5999e-002     97.505 
  63    0   12 10    +0.0297    +0.0294    +0.0300  -6.3782e-004     92.879 
  45    0    3 10    +0.1482    +0.1475    +0.1629  -1.5450e-002     91.699 
  55    0    8 10    -0.1547    -0.1548    -0.1379  -1.6893e-002     90.790 
  65    0   13 10    +0.0920    +0.0921    +0.0989  -6.7921e-003     90.589 
  59    0   10 10    +0.0765    +0.0767    +0.0815  -4.7261e-003     88.448 
  51    0    6 10    -0.0222    -0.0222    -0.0219  -3.4874e-004     85.813 
----------------------------------------------------------------------------------
Possível erro grosseiro no medidor 57!
Medida crítica   52!
Medida crítica   53!
Possíveis conjuntos críticos:
Conjunto 1: 10 11
Conjunto 2: 18 42
Conjunto 3: 8 48
Conjunto 4: 54 50
Conjunto 5: 9 7
Conjunto 6: 7 44
Conjunto 7: 29 23
Conjunto 8: 4 24
Conjunto 9: 65 55
Conjunto 10: 55 45
Conjunto 11: 43 67
Conjunto 12: 49 47
